Version 4
SHEET 1 976 680
WIRE 320 -144 256 -144
WIRE 512 -144 400 -144
WIRE 512 -96 512 -144
WIRE -48 16 -208 16
WIRE 80 16 -48 16
WIRE 256 16 256 -144
WIRE 256 16 80 16
WIRE 464 16 256 16
WIRE 592 16 464 16
WIRE 768 16 592 16
WIRE 256 32 256 16
WIRE -208 64 -208 16
WIRE -48 64 -48 16
WIRE 80 64 80 16
WIRE 464 64 464 16
WIRE 592 64 592 16
WIRE 768 64 768 16
WIRE 464 160 464 144
WIRE 496 160 464 160
WIRE 592 160 592 144
WIRE 592 160 560 160
WIRE 656 160 592 160
WIRE 768 160 768 144
WIRE 768 160 720 160
WIRE -208 176 -208 144
WIRE -160 176 -208 176
WIRE -48 176 -48 144
WIRE -48 176 -96 176
WIRE 0 176 -48 176
WIRE 80 176 80 144
WIRE 80 176 64 176
WIRE 768 192 768 160
WIRE 864 192 768 192
WIRE 768 256 768 192
WIRE -208 288 -208 176
WIRE 80 304 80 176
WIRE 704 304 80 304
WIRE 464 336 464 160
WIRE 464 336 -144 336
WIRE -208 576 -208 384
WIRE 272 576 -208 576
WIRE 768 576 768 352
WIRE 768 576 272 576
FLAG 272 576 0
FLAG 512 -96 0
FLAG 864 192 Vout
IOPIN 864 192 Out
SYMBOL res 64 48 R0
SYMATTR InstName R1
SYMATTR Value 100k
SYMBOL res -64 48 R0
SYMATTR InstName R2
SYMATTR Value 12k
SYMBOL res -224 48 R0
SYMATTR InstName R3
SYMATTR Value 12k
SYMBOL res 448 48 R0
WINDOW 3 31 17 Left 2
SYMATTR Value 100k
SYMATTR InstName R4
SYMBOL res 576 48 R0
SYMATTR InstName R5
SYMATTR Value 12k
SYMBOL res 752 48 R0
SYMATTR InstName R6
SYMATTR Value 12k
SYMBOL cap 64 160 R90
WINDOW 0 0 32 VBottom 2
WINDOW 3 32 32 VTop 2
SYMATTR InstName C1
SYMATTR Value 10n
SYMBOL cap 560 144 R90
WINDOW 0 0 32 VBottom 2
WINDOW 3 32 32 VTop 2
SYMATTR InstName C2
SYMATTR Value 10n
SYMBOL diode 656 176 R270
WINDOW 0 32 32 VTop 2
WINDOW 3 0 32 VBottom 2
SYMATTR InstName D1
SYMBOL diode -96 160 R90
WINDOW 0 0 32 VBottom 2
WINDOW 3 32 32 VTop 2
SYMATTR InstName D2
SYMBOL npn 704 256 R0
SYMATTR InstName Q1
SYMATTR Value BC547B
SYMBOL npn -144 288 M0
SYMATTR InstName Q2
SYMATTR Value BC547B
SYMBOL voltage 304 -144 R270
WINDOW 0 32 56 VTop 2
WINDOW 3 -32 56 VBottom 2
WINDOW 123 0 0 Left 0
WINDOW 39 0 0 Left 0
SYMATTR InstName V1
SYMATTR Value 12
TEXT -256 600 Left 2 !.tran 10ms
